RSAWEB (PTY) LTD
Tata Communications Limited
NOWO COMMUNICATIONS, S.A.
NUBICOM S.R.L.
CJONLINE ISP India
PT. Cahaya Buana Raksa
TTNET s.r.o.
Royal Bank of Scotland plc
Atria Convergence Technologies Pvt. Ltd.,
Multimedia Polska Sp. z o.o.
EHS, s.r.o.
NITEX ISP s.r.o.
TATA COMMUNICATIONS (AMERICA) INC
Robert Biskupski trading as P.H.U. "Cresh.NET"
Otecel S.A.
KTVS Ltd.
PT. Total Info Kharisma
Telenor Pakistan (Pvt) Ltd
Global Net Informatica Ltda
Orange Romania S.A.
Beijing CNISP Technology Co., Ltd.
Millennium Pharmaceuticals, Inc.
Vodafone Data
Net By Net Holding LLC
Education Networks of America
M247 Ltd
REWE Systems GmbH
TRANSWORLD ASSOCIATES (PVT) LIMITED
Wyyerd Group
MAX NET FOR INTERNET SERVICES
FUZE INC
BAS Network
PT Rtiga Global Media
3D WIRELESS PLUS LIMITED
Markus Jobst trading as Jobst DSL e.K.
Techminds Network Pvt. Ltd.
Intech Limited
El Salvador Network, S. A.
Stofa A/S
Minh Tu Telecom Limited Company
T-Mobile USA, Inc.
ADN Telecom Ltd.
GRUPO ULLOA CLIVIO SPA
Red Cientifica Peruana
DataSpring s.r.o.
PC "MIRTELEKOM"
Velocity Networks Inc.
PLUGGAR TELECOM
Interredes S.A.
Exatel S.A.
ISP SOLUTIONS S.A.
Exelon Corporation
Blizzard Entertainment, Inc
WIND POWER ENERGY SRL
Jump Trading LLC
Surfnet B.V.
Nationale Confederatie van het Bouwbedrijf VZW
PT. Arjuna Global Teknologi Indonesia
Jan Stetina
Caucasus Online Ltd.
Orange Slovensko a.s.
Colba Net Inc.
GENIUS IT
Dinas Komunikasi dan Informatika Kabupaten Blitar
NTT America, Inc.
PT. AMBHARA DUTA SHANTI
NCS Pearson Inc.
CGI Sverige AB
Bell AG
ETAPA EP
Telia Finland Oyj
Hutchison Max Telecom Limited
Zayo Bandwidth
IP-Only Networks AB
Claranet Limited
COOPERATIVA COLONIZADORA MULTIACTIVA FERNHEIM LTDA
PEMERINTAH KABUPATEN PURWOREJO
Adylnet Telecom
IABG Teleport GmbH
Kenyan Post & Telecommunications Company / Telkom Kenya Ltd
Webstorm (Pty) LTD
PEG TECH INC
REYU.COM Rafal Reinert
HUAWEI INTERNATIONAL PTE. LTD.
Krishna Broadband
TRK Zenit Ltd
TT DOTCOM SDN BHD
Nmax
Bharat Sanchar Nigam Ltd
J. Walter Thompson
Vodafone Portugal - Communicacoes Pessoais S.A.
SKYVIEW ONLINE LTD
A1 Slovenija telekomunikacijske storitve,d.d.
TWT S.p.A.
COMSATS
NOVA TELECOM LTDA
WIRELESS MULTI SERVICE VARGAS CABRERA, S. R. L
TELEMAC TELECOMUNICACOES LTDA
Vodafone Italia S.p.A.
AGENCIA PARA LA ADMINITRACION DIGITAL DE LA COMUNIDAD DE MADRID
R-KOM Regensburger Telekommunikationsverwaltungsgesellschaft mbH trading as R-KOM Telekommunikationsgesellschaft mbH & Co. KG
Microsoft Mobile Alliance Internet Services Co., Ltd
SUPER STAR ELECTRONICS LIMITED
Bangladesh Online Ltd
PT NettoCyber Indonesia
Hps Digital Broadband Pvt Ltd
X-DSL Networking Solutions
Interkonekt Pawel Barczyk, Tomasz Furman Sp.J.
Talk Straight Ltd.
Datanet Provedor de Internet Ltda
PT Bali Towerindo Sentra, Tbk
INTERLIG TELECOM
MTN COTE D'IVOIRE S.A
CPS
THE INTERPUBLIC GROUP OF COMPANIES, INC.
Blue Lotus Support Services Pvt Ltd
F2X Operator B.V.
Intel Deutschland GmbH
ISPRJ - INFORMÁTICA E TELECOMUNICAÇÕES ME
PT. Indosat Mega Media
Palestine Telecommunications Company (PALTEL)
PT Dinar Wahana Gemilang
Wholesail networks LLC
Minet Communication
US Signal Company, L.L.C.
Lamerd Information & Communication Technology Co.,ltd
Spitfire Network Services Limited
Fernando German Fischer (FIBERNET TELECOM)
Magyar Telekom plc.
GROUPE TELECOM SPRL
Alestra Innovacion Digital S de RL de CV
Telefiber AS
SEACOM Limited
GleSYS AB
CAMAQUANET SERVICO DE COMUNICACAO MULTIMIDIA EIREL
Sahara Network
Piccinin Computadores e Telefonia Ltda
Plateau Telecommunications Incorporated
Eurofiber NV
PT. FOXLINE MEDIADATA INDONUSA
BELNET EIRELLI
Kappa Internet Services Private Limited
TNext S.A.
Videotime SPA
AERO COMMUNICATIONS BROADBAND PVT. LTD
Louis Vuitton Malletier SA
Polkomtel Sp. z o.o.
Veganet Teknolojileri ve Hizmetleri LTD STI
PT JERNIH MULTI KOMUNIKASI
Shanghai Blue Cloud Technology Co.,Ltd
Metsaliitto Osuuskunta
The Rye Telephone Company
BEIJING GEHUA CATV NETWORK CO.LTD
LINK PRIME TECNOLOGIA
WIND HELLAS TELECOMMUNICATIONS SA
RF TV CABO MIX LTDA
Elisa Eesti AS
HKBN Enterprise Solutions HK Limited
TalkTalk Communications Limited
Experian
TIVIT TERCEIRIZAÇÃO DE PROCESSOS, SERV. E TEC. S/A
SOFTDADOS CONECTIVIDADE
Web Concepts (Pvt) Ltd
The Internet Business Ltd
V.B. Telecomunicações LTDA.
Cloud 9 Ltd.
Asianet Satellite Communications Pvt Ltd
Silver Lake Investments (Silver Cable)
Giuliano Claudio Peritore trading as "Panservice s.a.s. di Cuseo Fabrizio & C."
PT Maxindo Mitra Solusi
PRIME TELECOM LTDA
North State Telephone Co.
CV. NATANETWORK SOLUTION
Kujtesa Net Sh.p.k.
Cogeco Connexion inc
Managed Network Systems Inc.
NTT-ME Corporation
Axesat México, S. A. de C.V.
Virgo Communication Ltd
KDDI CORPORATION
CAPS
Al-Jazeera Al-Arabiya Company for Communication and Internet LTD
Mithril Telecommunications Private Limited
Companhia de Telecomunicacoes de Macau
Excitel Broadband Private Limited
National Academic Network and Information Center
MSW S.A.
TELE2
LUXNETWORK S.A.
tsis
Big Bend Telephone Company, Inc.
Cronos NV
Anchnet Asia Limited
Shivansh Infotech pvt Ltd
Shikhar Broadband Enterprises Pvt Ltd
SM Passos Kayser Sistemas de Comunicações ME
BJS WHOLESALE CLUB
Zambia Research and Education Network (ZAMREN)
Ericsson Network Systems, Inc.
BIGLOBE Inc.
SPEED ONLINE
KIRZ Company Limited
Mahanagar Telephone Nigam Limited
Cable & Wireless Panama
Bigleaf Networks, Inc.
L. Garcia Comunicações ME
Latvenergo
Brantley Telephone Company, Inc.
IQVIA Holdings Inc
LLC Skytel
Lovitel LLC
PT Artha Media Lintas Nusa
Nokia Solutions and Networks Oy
PT Asia Teknologi Solusi
ATENEA TELECOMUNICACIONES S.A.S
Cogent Communications
ANS Group Limited
PenTeleData Inc.
GENOVESIO HUGO ALBERTO RAMON
Iran Telecommunication Company PJS
Ani Broadband Service Pvt Ltd
Starry, Inc.
Frontier Optical Networks Ltd
CBS inc.
Vogel Soluções em Telecom e Informática S/A
Wananchi Group (Kenya) Limited
TWO SIGMA INVESTMENTS, LP
Energizer Brands LLC
Visionary Communications, Inc.
Reedsburg Utility Commission
Christodoulou Christos trading as Wicon
PT RESTU PANCA ALAM
ITH Management Office SRL
EVRY NORGE AS
Comunicaciones Metropolitanas METROCOM, S.A.
PT PHATRIA INTI PERSADA
Linode, LLC
Vero Internet
Alchemy Communications, Inc.
Sony Network Communications Inc.
STATUS EQUIPAMENTOS DE TELECOMUNICACOES
Beijing Cloud-Ark Technology Co.,Ltd.
MSTelcom-Mercury Servicos de Telecomunicacoes, S.A.R.L
Internet @ Home Limited
PT. ARTHA LINTAS DATA MANDIRI
Innove Communications
K Net Solutions Pvt Ltd
Intech Online Private Limited
Mega-Line Ltd.
A1 Telekom Austria AG
SWAN, a.s.
Orange Espagne SA
MUNDIVOX LTDA
Swisscom (Schweiz) AG
ALOO TELECOM - FSF TECNOLOGIA SA
Ferabraznet Comenrcio e Serv. de Telecom. Ltda-ME
Cybersmart
Great Lakes Comnet, Inc.
Gtd Internet S.A.
Telefonica del Peru S.A.A.
CETIN a.s.
Botswana Telecommunications Corporation
GLOBALCONNECT AS
Cue Club Technology
O2 Czech Republic, a.s.
NETVIP MT
AT&T Global Network Services, LLC
RD TELECOM LTDA -ME
Emirates Telecommunications Corporation
Seans Media Pvt Ltd
MCI Communications Services, Inc. d/b/a Verizon Business
Turk Telekomunikasyon Anonim Sirketi
PT. Cybertechtonic Pratama
Emerson Electric UK Limited
Blinkload Technology Co., Ltd
Pioneer Elabs Ltd.
TurkNet Iletisim Hizmetleri A.S.
Kloud Technologies Limited
Amanah Tech Inc.
Latin American and Caribbean IP address Regional Registry
TDS TELECOM
AVNET ASIA PTE LTD
SAP America Inc.
fusion services
Fanava Group
TE-AS
Columbus Communications Curacao NV
Nette sp. z o.o.
ICANN
Opticom Networks Private Limited
TerraNet sal
PepsiCo International
InterneXt 2000, s.r.o.
United Telephone Company
Consortium GARR
Wireless Comm Services LTDA
Weld County Government
ETB - Colombia
Telecom Malagasy
Zscaler Switzerland GmbH
Home Telephone Co.
Sony Network Taiwan Limited
Foxtel Telecommunications Pvt. Ltd.
Rogers Communications Canada Inc.
LLC GlobalTelecomStroy
Lotte Data Communication Company
Hutchison Drei Austria GmbH
Jupiter Telecomunicacoes e Informatica Ltda
SOFTECH INFOSOL PVT. LTD.
MyKRIS ASIA Sdn Bhd
Cicchetti Joel Alejandro
Emerson Electric Co.
Huayun Data International Limited
Ascenty Data Centers e Telecomunicações S/A
TV AZTECA SUCURSAL COLOMBIA
NEXT-TV SHPK
Southern California Gas Company
TierPoint, LLC
Trans World Enterprise Services (Private) Limited
UP NET TELECOM
Liquid Telecommunications South Africa (Pty) Ltd
IT7 Networks Inc
SHYAM SPECTRA PVT LTD
NODOSUD S.A
CONGO TELECOM
Level IV
MultiCity Broad Band Pvt Ltd
Cify IT Services Pvt Ltd
DIGI STAR INFO SOLUTIONS PRIVATE LIMITED
PT Media Sarana Data
NEC Corporation of America
Jenny Internet cc
Verein zur Foerderung eines Deutschen Forschungsnetzes e.V.
China Networks Inter-Exchange
China Education and Research Network Center
WISP INTERNET ECUADOR
Ethio Telecom
Wsp Serviços de Telecomunicações Ltda
Limerick Technologies Pvt Ltd
We Link Networks LLC
DataCorpore Serviços e Representações
Anik Computer & Networking
WIA spol. s.r.o.
Mundivox LTDA
TV CABO ANGOLA LDA
MTC - Mobile Telecommunications, Ltd.
Santander Global Technology, S.L.U
Colvir-Rus OOO
IMS Health India Pvt Ltd
Digicel Trinidad and Tobago Ltd.
Satcomm (Pvt.) Ltd.
Navegar Telecom
Tiscali Italia S.P.A.
Office National des Postes et Telecommunications ONPT (Maroc Telecom) / IAM
Orange Bissau
AGTS CDMA Mobile Department
SION S.A
Milos Tuma
Change Healthcare
PG&E
Jordanian Universities Network L.L.C.
Dot Internet
Omnicare, Inc.
Disk Sistema Tele-Informatica Ltda- ME
PT. Mahameru Media Nusantara
DISTRIBUIDORA OFIC TECH DE VENEZUELA C.A.
SEWAN SAS
Mob Servicos de Telecomunicacoes Ltda
NETSCOPE
T-Mobile Thuis BV
High Speed Telekomunikasyon ve Hab. Hiz. Ltd. Sti.
TogoTelecom, Togo
ONENET HK LTD
Instituto Costarricense de Electricidad y Telecom.
Skyturbo Telecom
Quickline Communications Limited
Aljeel Aljadeed For Technology
Security Firewall Ltd
Dronagiri Infotech Pvt Ltd
CABLECOLOR S.A.
CHINATELECOM JiangSu YangZhou IDC networkdescr: YangZhou , Jiangsu Province, P.R.China.
Net Uno, C.A.
Bayanat Al-Oula For Network Services Limited Co.
Net Tech Ltd
GIGABIT S.A.L
CABO SERVICOS DE TELECOMUNICACOES LTDA
Adelphi Net1 Ltd
SamsungSDS Inc.
Hotwire Communications
TTSL-ISP DIVISION
DoD Network Information Center
LENILSON PATRIOTA DE SOUSA JUNIOR EIRELI
HIREACH BROADBAND PRIVATE LTD
RealDolmen NV
ICORE TECHNOLOGY
AT&T Services, Inc.
Connect Communication
HEC
Drustvo za telekomunikacije "MTEL" DOO
Peak Internet
Vodafone Romania S.A.
AECERO, INC.
EQUINIX BRASIL
SMART SISTEMZ TECHNOLOJI MMM
PT MEDIA MANAKARRA NET
McCANN-ERICKSON PUBLICIDADE LTDA.
Telmex Colombia S.A.
Race Technologies, Inc.
RailTel Corporation of India Ltd.
CMPak Limited
Forcepoint Cloud Ltd
Spirit Communications
Royal Cablevision Corp.
DIRECTEL COMMUNICATIONS (PTY) LTD
Saudi Telecom Company JSC
NEOGRID DATACENTER SA
ICUK Computing Services Limited
Porto Mixcom Comunicaçao e Informatica Ltda
Netw Telecom
Guangdong
Isomedia, Inc.
Gujarat Telelink Pvt Ltd
RIYAD NETWORK
Nuvera
Call U Communications Ltd.
Banco BMG S.A.
Magellan Health Services
IncoNet Data Management sal
OVH SAS
Ultranet services private limited
Natel Telecom Ltda. - ME
ASBYTE TELECOMUNICACOES E SERVICOS EM INFORMATICA
Manulife International Limited
Uganda Telecom
PepsiCo, Inc.
CBRE Pty Limited
Revlon Consumer Products Corp.
AFRIQ NETWORK SOLUTIONS LIMITED
Host Africa (Pty) Ltd
Fujitsu Australia Ltd
Ani Network Pvt Ltd
Next Online Ltd.
GRUPO TDKOM
B.K.B Network
DishNet Africa Limited
Broadband Plus S.a.l.
Loxley Wireless Public Company Limited
Etihad Atheeb Telecom Company
KAMPALA SITI CABLE LIMITED
Altibox AS
JSC Liberty Bank
USDA
EAST-NET Ltd
PT Awinet Global Mandiri
OAO Wimm-Bill-Dann
NapaNet
Solution
ORANGE MOLDOVA S.A.
PT Wahyu Adidaya Network
SK Broadband Co Ltd
Aircastle Advisor LLC
Team Bilgi Teknolojileri Limited Sirketi
PT.LEXXA DATA INDONUSA
Transamerican Telecomunication S.A.
Next Gen Networks B.V.
@del-141917
sim telecomunicação e multimidia
PT. TIME EXCELINDO
Balaji Enterprises
I.T. PROFESSIONAL SERVICES LIMITED
Gemzo information technology Private Joint-Stock company
GIB-Solutions AG
Lao Telecommunication Co Ltd
LGA International
UAB Blue Bridge
Redes y Telecomunicaciones
Ultra Kings Limited
HUGHES DE COLOMBIA S.A.S.
Northwest Airlines
London Grid for Learning Trust
TURBO NET TELECOMUNICAÇÃO LTDA ME
Makedonski Telekom AD-Skopje
ADPGSI FRANCE
Shenzhen Tencent Computer Systems Company Limited
apa.com internet
Westelcom Internet, Inc.
LLC Sweet Life Plus
Beijing Guanghuan Xinwang Digital
Maisha Net
Wimax On Line, S.L.
Foxtel Management Pty Ltd
GTS Telecom SRL
Expert Online
Secretaria de Estado de Desenvolvimento e Inovacao
Sify Limited
PT JARGARIA TELEMATIKA INDONESIA
TASCOM TELECOMUNICAÇÕES LTDA
Paintweb Internet Ltda
MetLife
Peter Rauter GmbH
PSA AUTOMOBILES SA
WestHost, Inc.
AS Number of Indusind Media and communication Ltd.
Murmansk Multiservice Networks-ShPD LLC
Saigon Postel Corporation
Solcon Internetdiensten B.V.
Serinya Telecom
Banco Santander (Brasil) S.A.
Nextwise Internet And Broadcasting Pvt. Ltd
Surround Networks Pvt Ltd
Loginet Solutions LLC
Limes sp. z o.o.
Hengyang
United Nations World Food Programme
PT. Rak Super Ninja
RED POWER INTERNET SRL
BitCo
Digital Island Limited
City of Morganton
PIENSCO MANUTENCAO E PROJETOS LTDA
Megasurf Wireless Internet CC
Radore Veri Merkezi Hizmetleri A.S.
Point Broadband Fiber Holding, LLC
Andrews & Arnold Ltd
Windstream Communications LLC
ELXIRE DATA SERVICES PVT. LTD.
Media Commerce Partners S.A
ULTRA TELECOM
Vodafone Limited
Metlife Chile Seguros de Vida
Netfar Informatica Ltda
SARTOR INTERNET LTDA - ME
Advanced Science and Technology Institute
InterCloud ltd
PT. Putra Lebak Banten
Tri-City Medical Center
Environmental Systems Research Institute
Linhares Serviços Online LTDA EPP
PT Chacha Networking System
JANE STREET
MINAS TELECOMUNICACOES E INFORMATICA LTDA ME
RD TORRESNET TELECOM LTDA
Neuviz Net
United Telecommunication Services (UTS)
PT Pika Media Komunika
PT Parsaoran Global Datatrans
Badan Nasional Penanggulangan Bencana
BERTASSO E CIA LTDA
Vodafone Libertel B.V.
Node4 Limited
CityNet
Giggle Fiber
BIZNET ISP
PT Cyberplus Media Pratama
RIDERSON MENDES BORGES - ME
JKM Infotech
Cellco Partnership DBA Verizon Wireless
Telstra Corporation
bdHUB
D-Vois Broadband Pvt Ltd
Seagate Technology LLC
PT. Jinom Network Indonesia
Crnogorski Telekom a.d.Podgorica
Schuberg Philis B.V.
Golden Belt Telephone
Frontier Communications of America, Inc.
Cyber Internet Services (Private) Limited
PT. Yasmin Amanah Media
Publix Super Markets, Inc.
Vietnam Posts and Telecommunications (VNPT)
SBR Telecom Pvt. Ltd
W.W.GRAINGER
Shared Services Canada
Mada ALArab LTD
Delta Telecom Ltd
DEPARTMENT OF HOMELAND SECURITY
South Slope Cooperative Telephone Company
Sol Cablevisión S.A.S E.S.P
Wells Fargo & Company
Ooredoo Myanmar Limited
Apeiron Global Pvt. Ltd.
Hai Telecommunications Limited
Vodafone GmbH
The Bank of New York Mellon Corporation
ARSAT - Empresa Argentina de Soluciones Satelitales S.A.
MMA ACESSORIOS E SERVICOS DE INFORMATICA LTDA.
Telenor Norge AS
CSC - Tieteen tietotekniikan keskus Oy
IGNET LINHAS TELECOMUNICAÇÕES - ME
Charter Communications, Inc
Zachodniopomorski Uniwersytet Technologiczny w Szczecinie, Akademickie Centrum Informatyki
Star Joint Venture Co. Ltd.
MILLICOM CABLE EL SALVADOR S.A. DE C.V.
METRORED S.A. DE C.V.
Excogitate Technologies Pvt Ltd
PT Mitra Media Data
Farah Trading & Contracting Co.
PT BOMM AKSES TEKNOLOGI
CS Loxinfo Public Company Limited
Videotron Telecom Ltee
Silica Networks Argentina S.A.
Cisco OpenDNS, LLC
WIND NET S.A.
PERSONA COMMUNICATIONS INC.
Damco Solutions Pvt. Ltd.
Transtelco Inc
Infocom ltd
Aamra Networks Limited
Ivy Comptech Pvt Ltd
XF Comunicaciones S.A.
REDE RALPNET TELECOMUNICACOES EIRELI
Nextlink Broadband
S.O.S. TELECOM EIRELI ME
Beijing Xiaoju Science and Technology Co., Ltd.
RTC Communications Corp.
VoiceHost Ltd
Telefónica Celular S.A
PT. Centra Global Investama
IPNET COMMUNICATIONS
LEONARDO RODRIGO FERRO - ME
Digiweb ltd
Pioneer Long Distance Inc.
WIRE TELECOM SERVICOS DE TELECOMUNICACOES LTDA
FIBIA P/S
Cool Ideas Service Provider (Pty) Ltd
Liberty Global B.V.
RT NICOLAU TELECOMUNICAÇÃO - ME
Wateen Telecom Limited
Hetzner Online GmbH
Syrian Telecom
CV Atha Media Prima
SPEEDNET LTDA EPP
WakeMed
Sri Vari Network Private Limited
AGORA CALYCE SpAS
WZNET TELECOM LTDA
Florida Department of Management Services - Division of Telecommunications
NOVA FIBRA TELECOM S.A.
LUMOS Networks, Inc.
Dctech Micro Services
Koperasi PRIMKOKAS
EO Data Center
Signalhorn Trusted Networks GmbH
Sony Interactive Entertainment LLC
IFX Networks Venezuela C.A.
REDtone Marketing Sdn. Bhd.
Routit BV
MHNET TELECOM
PT. Java Digital Nusantara
Cipherwave
Hot-Net internet services Ltd.
MIA Telecoms
Levikom Eesti OU
Cablenet Communication Systems plc
TELLCOM ILETISIM HIZMETLERI A.S.
TECHTRON ARGENTINA S.A.
Reseaux IP Europeens Network Coordination Centre (RIPE NCC)
PT. Eka Mas Republik
EDPNET NV
Sajid Trading Ltd.
PT Data Arta Sedaya
Edgewell Personal Care Brands, LLC
Grupalia Internet S.A.
iNES GROUP SRL
Hewlett-Packard Company
TECNOLOGIA BANCARIA S/A
The Procter and Gamble Company
InfoWest, Inc.
FIBERTEL PERU S.A.
Sejong Telecom
Canby Telephone Association
DataYard
NeocomISP Limited
Television Internacional, S.A. de C.V.
Capita Business Services Ltd
ALTA REDE CORPORATE NETWORK TELECOM LTDA - EPP
Ministerio del Interior y de Seguridad Publica - Gobierno de Chile
PT Global Prima Utama
S.A. NET
MYANMAR INFORMATION HIGHWAY LIMITED
EZECOM limited
INVERSIONES Y SOLUCIONES GENERALES S.A.
Alestra, S. de R.L. de C.V.
WMS s.r.o.
2713/4 lakshmi building adipampa road v.v.mohalla
SIA Tet
THE INFINITY BROADBAND (PVT) LIMITED
Spectrum Networks Pty. Ltd.
Maxtech Broadband Pvt Ltd
Telekom System sp.z o.o.
Telefonica UK Limited
Ready Server Pte Ltd
Asahi Net
CANTV Servicios, Venezuela
Anthem Blue Cross Blue Shield
City of Fort Collins
Kier Ltd
ANTIK Telecom s.r.o
Serbia BroadBand-Srpske Kablovske mreze d.o.o.
Cronomagic Canada Inc.
IENTC S DE RL DE CV
Institut Agama Islam Negeri Pekalongan
TOT Public Company Limited
We Are IT Philippines Inc.
PURtel.com GmbH
PT. Panca Dewata Utama
Zamani Telecom Niger SA
True Internet Data Center Company Limited
PT. SIGMA CIPTA CARAKA
Columbus Networks Guatemala
Benchmark Infotech Services Pvt.Ltd.
Alhambra Systems SA
OOREDOO TUNISIE SA
Iseek Communications Pty Ltd
PRGNET LTDA - ME
Automatic Data Processing, Inc.
Fayetteville Public Utilities
Kom lan Ltd
XZoom Telecom
its communications Inc.
Core & Main
PT Global Teknologi Teraindo
TBONET SERVICOS DE INFORMATICA E COMUNICACOES LTDA
Network Zone Solution Provider Ltd
TotalCom Venezuela C.A.
AMERICATEL PERU S.A.
SAIONARA FERNANDES DA SILVA
GENERAL MOTORS OVERSEAS DISTRIBUTION LLC
Serverius Holding B.V.
Myanma Post & Telecommunication
PT. GEMILANG SARANA MANDIRI
Easynet Global Services
CN CARE NETWORK LTD
SOFT CALL CUST-O-CARE PRIVATE LIMITED
L. T. SPECHT TELECOMUNICACOES ME
OneCleveland
Block Solutions Ltd
VODAFONE ONO, S.A.
CLARKSVILLE DEPARTMENT OF ELECTRICITY
City of Calgary
ALEXHOST S.R.L.
Hangzhou Aron Teconology Co.,Ltd.
MEYER TELECOM
CTINET SOLUCOES EM CONECTIVIDADE E INFORMATICA LTD
TRUE INTERNET CORPORATION CO. LTD.
JSC "ER-Telecom Holding"
AARNet
RadioMovil Dipsa, S.A. de C.V.
Globacom Limited
Skyvision Guinee SA
TIM S/A
Dhaka Electric Supply Company Limited (DESCO)
Hello IT
INST DE TECN EM INF E INF DO EST DE AL
Microsoft Corporation
TSR Solutions, Inc.
Cross Development/Montgomery LP
COMCAST-SRL
The Dun & Bradstreet Corporation
Homaye Jahan Nama Co. ( Private Joint Stock)
Somali Optical Networks
Wifian Solution PT.
Myanmar Unilink Communication Company Limited
JSC Avantel
Stansat Stanislaw Grzesik
CMSInter.net LLC
Timer, LLC
China TieTong Telecommunications Corporation
AirZone internet Service Pvt. Ltd.
Arris Group, Inc
Barbosa & Costa Ltda
C2NET s.r.o.
SOUTH DAKOTA NETWORK
UAB "Magnetukas"
FLEX GESTAO DE RELACIONAMENTOS S.A.
CLOUD VALLEY TECHNOLOGY LIMITED
PE Bedniy Alexander Sergeevich
TADEU DONIZETI DE MIRANDA COMUNICACOES MULTIMIDIA
Compañía Dominicana de Teléfonos S. A.
PT SOLNET INDONESIA
UAB Consilium Optimum
PCCW IMS Ltd (PCCW Business Internet Access)
Regal Beloit Corporation
GSTN DO BRASIL LTDA
Kumanova Cable" SH.P.K.
Skyline Networks & Consultancy Ltd
MD Brasil - Tecnologia da Informação Ltda
51/A RACHNA MIDAS GOKULPETH
BANCOLOMBIA S.A
Megatelecom Telecomunicacoes Ltda
Applied Materials
Jaringan Lintas Utara, PT
Cincinnati Bell Telephone Company LLC
Falconet Internet Pvt.ltd.
NEOPHONE ARGENTINA SRL
HEB Grocery Company LP
JERSON UBIRATAN DA SILVA BARROS ME
Somtel Somalia LTD
Horizons Telecomunicações e Tecnologia Ltda
Ote SA (Hellenic Telecommunications Organisation)
Bel Air Internet, LLC
XC Networks, Ltd.
TV MUSIC HOUSE JUJUY
NET1 Ltd.
Systemia.pl Sp. z o.o.
INOC, LLC
BrianTel SRL
MEDIA COMMERCE PERÚ S.A.C
Agni Systems Limited
COZAD TELEPHONE COMPANY
NTS Communications, LLC
Digital Telco s.r.l.
Euskaltel S.A.
State Library of Queensland
Southern Telecommunication Company Ltd.
City Online Ltd.
Grape S.A.
Triple C Cloud Computing Ltd.
Emirates Integrated Telecommunications Company PJSC
General Post and Telecommunication Company (GPTC)
RVC Rong Viet Trade Service Telecom Company Limited
Entel S.A. - EntelNet
REDCA - RED CENTROAMERICANA DE TELECOMUNICACIONES
PT Cloud Hosting Indonesia
Akceycom Limited
Gap, Inc. Direct
ATALINK TELECOMUNICACOES
Live Nation Entertainment, Inc.
HERO TELECOMS (PTY) LTD
JSC Kazakhtelecom
Dijlat Al-Khair for communications and internet Ltd
HEAnet
FIBERNETICS CORPORATION
COLT Technology Services Group Limited
Megacable Comunicaciones de Mexico, S.A. de C.V.
EOLO S.p.A.
Starhub Internet Pte Ltd
MHO Networks
JM-Net, z.s.
Administracion Nacional de Telecomunicaciones
Cell C (Pty) Ltd
Telecentro S.A.
Softbank BB Corp.
VELOO NET LTDA
Dinamica Telecomunicacoes Ltda
AVONET, s.r.o.
INCX Global, LLC
PT Sarva Solution Indonesia
BBG TELECOM LTDAME
ARIYA NET ABAZAR PJSC
CAT Telecom Public Company Limited
Fastweb SpA
Rapid Broadband Ltd
Companhia Itabirana Telecomunicações Ltda
PRIME BANK LIMITED
Comm & Net S.A.
ISP Alliance a.s.
BITAL INTERNET
Airband Community Internet Ltd
Bulsatcom EAD
Headquarters, USAISC
CCNST Deutschland GmbH
Telia Norge AS
ASPSERVEUR SAS
Titania Telecom
Cooperativa de Electrificación Rural de San Carlos R.L. (Coopelesca R.L.)
Telmex do Brasil Ltda.
Health Insurance Review Assessment Service
INET TELECOM E INFORMATICA LTDA
PT. HIPERNET INDODATA
Xplore Cyber & Net
IZARLINK SAS
AMX Argentina S.A.
ADP Private Limited
PT. MEGA ARTHA LINTAS DATA
Computer Sciences Corporation
IRIDEOS S.P.A.
Smart Axiata Co., Ltd.
Servicios para el Transporte de Información S.A.
Emerson Electric Asia-Pacific
A1 Hrvatska d.o.o.
Information Services Network Limited
VIGINET C.A
Pars Fonoun Ofogh Information Technology and Communications Company LTD
INTERNEXA S.A. E.S.P
NETWORK INNOVATIONS, INC.
Global Resource Systems, LLC
BCI Telecommunication & Advanced Technology Company
Rede Telecom
Kalibo Cable Television Network Inc
Summit Communication Limited
Moja Supernova Doo Beograd
Free SAS
VICENTE CLAUDIO ORLANDO
China Telecom
INFONET TELECOM COM E SERVICOS DE INTERNET LTDA
PONTIFICIA UNIVERSID CATOLICA DO RIO GRANDE DO SUL
INVERSIONES RDN3 C.A.
Allegis Group
Departemen Energi dan Sumber Daya Mineral
Vodafone Czech Republic a.s.
Intel Corporation
FT DATA, LLC
Com Net, Inc.
Forbtech
Dial Telecom, a.s.
Sony Computer Entertainment Inc
Sony Global Solutions Inc.
VODAFONE ESPANA S.A.U.
Cooperativa de Servicios Públicos de Porteña LTDA
Toya sp.z.o.o
PT. Bangun Abadi Teknologi Indonesia
City Online Services Ltd
Internet Rimon LTD
Powertel Communications
AMTEL LTD
Wi-fi Dom Ltd.
VIP.com
Weatherford International Inc.
CONTINENTAL BROADBAND PENNSYLVANIA, INC.
ETISALAT MISR
TEN INTERNET Ltda
Eidsiva Bredband AS
Crystall Ltd.
Cyber Way Technology
Grupo Fullsat SRL
Zolotaya Linia Ltd.
kabelplus GmbH
Shaw Communications Inc.
WideOpenWest Finance LLC
ITway SPRL
CallPlus Services Limited
Vodafone Ireland Limited
HLP MOBILE AND WORLDWIDE TRACKING
CODGREC S.A.
Asser Al-Technologia Information Technology Company Limited
Tmnet, Telekom Malaysia Bhd.
CNLink Network Technology Ltd.
Telia Company AB
FIBERNET TV SAS
The University of Alabama
ACONET
Telefónica Celular de Bolivia S.A.
Leni gomes Oberleander ME
Reliance Communications Limited
Tele.Co.Albania SHPK
JR LINK PROVEDOR DE INTERNET VIA RARIO LTDA
Cloud Network Services (HK) Ltd.
Columbus Networks de Honduras S. de R.L.
Fuzenet Pty Ltd
Airstream Communications, LLC
TELEFÔNICA BRASIL S.A
TATA SKY BROADBAND PRIVATE LIMITED
Bouygues Telecom SA
Hexabyte
Pakistan Telecommuication company limited
Wataniya Telecom Algerie
MEO - SERVICOS DE COMUNICACOES E MULTIMEDIA S.A.
Goteborgs Stad
TURKCELL ILETISIM HIZMETLERI A.S.
Telecom International Myanmar Company Limited
RUPKKI s.r.o.
ROYAL SUNDARAM GENERAL INSURANCE CO. LIMITED
STC BAHRAIN B.S.C CLOSED
Private enterprise ITM
ScherrerNet Informática Ltda ME
Windx Networks
Columbus Communications Trinidad Limited.
E-Solutions bvba
National Mobile Telecommunications Company
GRUPO BARONE SRL
PT. CYBER TEKNOLOGI PUTRAWAN
Prudential Vietnam Assurance Private limited
DINAS KOMUNIKASI DAN INFORMATIKA KABUPATEN PEKALONGAN
ZPOINT KOTA
California Technology Agency
PT Quantum Tera Network
PT Lintas Jaringan Nusantara
Tecnowind S.A.
Aspt Networks Pvt Ltd
LightEdge Solutions
Citycable
Dhaka Fiber Link Ltd.
INSTITUT TEKNOLOGI NASIONAL MALANG
Session Telecoms(PTY) Ltd
Metrobank, S.A.
G8 NETWORKS LTDA
WISH NET PRIVATE LIMITED
ELPC
Televisao Cidade S/A
Metalink Technologies, Inc.
ReliableSite.Net LLC
Involta
Polycom, Inc.
Heidelberg IT Management GmbH & Co.KG
Liberty Cablevision of Puerto Rico
BUNGE ALIMENTOS S/A
Amway It Services Sdn Bhd
South China Morning Post Publishers Limited
IHS Global, Inc.
NORTE TELECOMUNICAÇÕES SERVIÇOS DE INTERNET LTDA
ViaSat,Inc.
Maxis Broadband Sdn Bhd
netplus.ch SA
California State University, Office of the Chancellor
INSIST NET Limited
AT&T Labs, Inc.
AT Broadband Pvt Ltd
Nexeon Technologies, Inc.
UAB INIT
INSTAL MATEL SL
Cogeco Cable
China Next Generation Internet CERNET2
3S S.A.
CenturyLink Communications, LLC
Sutherland Global Services, Inc.
VPS Broadband And Telecommunications Pvt Ltd
Huawei Cloud Service data center
Fluency Communications Ltd
Wi5 Internet Services Private Limited
NextGenTel AS
PRTURBO INTERNET WIRELLESS EPP LTDA
NEXTRA TELESERVICES PVT. LTD.
WIRCOM S.P.A.
KK Networks (Pvt) Ltd.
BR.Digital Corporate
LLC "Tvoi Telecom"
Joint Stock Company TransTeleCom
VIZAG BROADCASTING COMPANY PVT. LTD
Intercampo Empreendimentos Tecnológicos Ltda
UGMK-Telecom LLC
B.Root-Server-OPS
IBL Banda Larga Internet Informatica LTDA
Coca-Cola European Partners Deutschland GmbH
Philippine Telelgraph & Telephone
Tecnologías Avanzadas S. de R.L. de C.V.
WIND TRE S.P.A.
Internet Thailand Company Ltd.
BTcom Infocommunications Ltd.
THE ROYAL BANK OF SCOTLAND PLC
Hargray Communications Group, Inc.
Cablevision Red, S.A de C.V.
IOT Jiangsu network, Chinatelecom, P.R.China.
Claro S/A
Buhler AG
Lugansky Merezhy Ltd
Clear Rate Communications, Inc.
The Egyptian Company for Mobile Services (Mobinil)
LLC VillaNet
IOMART CLOUD SERVICES LIMITED
Miranda-Media Ltd
S. O. do Brasil Telecomunicações LTDA ME
AIRESPRING, INC.
SKYNET CHOWMUHANI
VOOB TELECOM
PT Herza Digital Indonesia
Refinitiv US LLC
UAB "Cgates"
Reti Telematiche Italiane S.p.A. (Retelit S.p.A.)
Universitas Islam Negeri Suska Riau
Sunrise Communications AG
Nine Internet Solutions AG
WiLine Networks Inc.
VTR BANDA ANCHA S.A.
Dhakacom Limited
Total Access Communication PLC.
PORTAL INTERNET E SERVIÇOS LTDA ME
Tera Fiber Telecomunicações Ltda
PUNTONET S.A.
SECW TELECOM
Jackson County Rural Electric Membership Corporation
MYNET S.R.L.
Internet Initiative Japan Inc.
PT Jembatan Data Pangrango
Two Degrees Mobile Limited
DINAS KOMUNIKASI INFORMATIKA STATISTIK DAN PERSANDIAN PROVINSI SULAWESI SELATAN
Kalaam Telecom Bahrain B.S.C.
Dade Pardazi Respina PJSC
LeaseWeb Netherlands B.V.
Neptuno Media, Inc.
MyanmarAPN Company Limited
TPx Communications
Electric Plant Board of the city of Franklin Kentucky
SGV TI E TELECOM LTDA
RL CAFE NET
Grupo Bimbo, S.A.B. de C.V.
Haifa Chemicals Ltd
Northeast Service Cooperative (ASN-NEWMN)
1TELECOM SERVICOS DE TECNOLOGIA EM INTERNET LTDA
Radiant telecommunications
UNIDATA S.p.A.
Microscan Computers Private Limited
Metroset Ltd.
New Pakistan Cable Network (Firm)
ALLO TECHNOLOGY SDN. BHD.
Capgemini U.S. LLC
Leaseweb Deutschland GmbH
Intercom SRL
Globe Telecom Inc.
Utica Mutual Insurance Company
Blue Sky Broadband Pvt. Ltd.
VECTRA S.A.
F A VIEIRA DE SOUZA SERVICOS ME
KCOM GROUP LIMITED
Pan M Tech Limited
Allied Telecom Group, LLC
Satelcom Internet Inc.
The Constant Company, LLC
Dar Al-Mustawred Trading Group Limited
Giganet Internet Szolgaltato Kft
TV Rey de Occidente, S.A. de C.V.
iTel Networks Inc
Alternet Comercio e Serviços Ltda
Operbes, S.A. de C.V.
Macys Systems and Technology
Cipherkey Exchange Corp.
PT SUMBER KONEKSI INDOTELEMATIKA
M2E PREST DE SERV ESPECIALIZADOS EM INF LTDA - EPP
EURO PC Piotr Kwasnik
PRIVATE JOINT STOCK COMPANY "DATAGROUP"
Sony Europe B.V.
Psychz Networks
SOFTBUTTERFLY SAC
Mediacom Communications Corp
INTERCONECT TELEINFORMATICA EIRELI
Pfizer Pte Ltd
Novartis Pharmaceuticals
Geotel Bangladesh IT Ltd.
Núcleo S.A.
Gkg Net Telecon Eireli
Netskope Inc
Multinet Broadband
Zeta-web Nigeria Limited
NORTH TELECOMUNICACOES EIRELI
TBayTel
PT.Bestcamp Prima Data
Precious netcom pvt ltd
World Star Communication
Dipartimento della Protezione Civile
PCCW Global, Inc.
National Knowledge Network
Subisu Cablenet
Bulgartel EAD
United Information Highway Co.,Ltd.
Jordan Data Communications Company LLC
Telgua
Hitachi,Ltd., Cloud services Division
Switch Telecom s.a.r.l
PT. Arka Data Primatama
Telekom Slovenije, d.d.
euNetworks GmbH
Corporate / Direct Member IDNIC
The Blackstone Group
Cdiscount SA
Helm consultants pvt ltd
Frontier Networks
SingNet Pte Ltd
Republican Unitary Telecommunication Enterprise Beltelecom
Blazenet Pvt Ltd
ALTAN REDES, S.A.P.I. de C. V.
Tele Go, Inc
TELECOMUNICACIONES BANTEL, C.A.
IVANCELL. NET COMERCIO DE TELEFONIA EIRELI
The Goodyear Tire & Rubber Company
PROVEDORA CMA INTERNET LTDA
SAP SE
Comporium, Inc
LLC Babilon-T
IP ServerOne Solutions Sdn Bhd
Gandalf Comunicaciones C.A.
YOU Broadband & Cable India Ltd.
DongFong Technology Co. Ltd.
BroadbandONE, LLC
PT Global Media Pratama Solusindo
T.H. Global Vision SARL
Uninet S.A. de C.V.
PT. Palapa Media Indonesia
PT. Usaha Adisanggoro
Awaser Oman LLC
Mass Computer
Dhamrai Network
Hesabgar Pardaz Gharb PJSC
HOTLINK INTERNET LTDA
NEVERNET, s.r.o.
LG DACOM Corporation
Bank of America, National Association
G. PEREIRA NORONHA - ME
Phenix Cable
Capgemini Nederland B.V.
Responsible Internet Sustainability Effort
Bidang Layanan Teknologi dan Informasi Dinas Perhubungan
GTT Communications Inc.
Neolink Telecomunicações LTDA
North Telecom
PhilCom Corporation
SAGLAYICI Teknoloji Bilisim Yayincilik Hiz. Ticaret Ltd. Sti.
City of Thomasville Utilities
Elyzium Technologies Pvt. Ltd.
PJSC "Ukrtelecom"
Virtual1 Limited
Praxair Inc
Northwest Open Access Network
PT BITNIAGA CIPTA GEMILANG
Brinkster Communications Corporation
MULTICABLE DE HONDURAS
Dinas Komunikasi dan Informatika Pemerintah Kota Depok
NOBREAK NET LTDA - M.E.
Radiant Communications Ltd.
Vodafone New Zealand Limited
Chunghwa Telecom Co., Ltd.
Pontal Cabo Ltda
E-Light-Telecom Ltd.
CSC Holdings Inc.,
PT PC24 Telekomunikasi Indonesia
S A Internet Solution Pvt Ltd
Zambia Telecommunications Company Ltd aka ZAMTEL
IE Parhomenko Aleksey Aleksandrovich
Ishan's Network
OrbitalNet Ltd
HERMOM SERVICOS E COMERCIO DE TELECOMUNICACOES LTD
ABC TELECOM - COMUNICACAO EIRELI
PT. MATRIXNET GLOBAL INDONESIA
KSC Commercial Internet Co.Ltd.
COMCEL GUATEMALA S.A.
M1 NET LTD
Hanyang University
CITIC Telecom International CPC Limited
M1 LIMITED
WORLD CONNECT TELECOMUNICAÇÕES DO BRASIL EIRELI-ME
SALZBURG AG fur Energie, Verkehr und Telekommunikation
Razzo Link, Inc.
Elisa Oyj
Eliana Vanessa Morocho Oña
Proximus NV
Ero Wide Comm Private Limited
PT Telemedia Network Cakrawala
Equitable Holdings, Inc
ETS TELEPHONE COMPANY, INC.
Sony Pictures Technologies Inc.
Orange S.A.
America Movil Peru S.A.C.
Highland Wireless & IT Solutions Ltd
INTERNET TELECOMUNICATION COMPANY DE GUATEMALA, S.A.
NORTHLAND CABLE TELEVISION INC.
Midcontinent Communications
AT&T Mobility LLC
HATHWAY CABLE AND DATACOM LIMITED
OKB PROGRESS LLC
Andhra Pradesh State FiberNet Limited
Beijing Capital Public Information Platform
Expereo International BV
Cablevision Systems Corp.
BeotelNet-ISP d.o.o
IP NEXIA N.V.
SODETEL S.A.L.
Alibaba.com Singapore E-Commerce Private Limited
SCANSAFE SERVICES LLC
Superimagem Tecnologia em Eletrônica Ltda
Telecable Economico S.A.
Restel S.A.
Kings Network Indonesia, PT
WiscNet
Telecom Argentina S.A.
Southern New England Telephone Company and SNET America, Inc.
Mezobyte (Pty) LTD
INTERNET HARBOUR INTERNATIONAL CO.LIMITED
XTRA TELECOM S.A.
KSI System Sp. z o.o.
DATASYS - edoma.net s.r.o.
Phibee Telecom SAS
PT Naraya Telematika
Montana Opticom, LLC
T-2, d.o.o.
PT. Cross Network Indonesia
Wirulink Pty Ltd
TTNet A.S.
Cox Communications Inc.
Novartis AG
Netstra Communications Pvt Ltd
M-net Telekommunikations GmbH
Viettel Group
Telemach UG d.o.o.
emPSN Services Limited
PT. Sarana Cipta Komunikasi
Navega.com S.A.
Websurfer Nepal Communication System Pvt. Ltd
Gostaresh Etrtebatate Apadana Ltd.
Webby Tecnologia Ltda
BRETAGNE TELECOM SAS
Reliance Jio Infocomm Limited
Northern Valley Communications LLC
Datto, Inc
Google Fiber Inc.
Passit Media And Communication Pvt. Ltd.
AT&T Mobility Puerto Rico
Steelcase, Inc.
Office of Info.Tech. Admin. for Educational Development
NipBr - NipCable do Brasil Telecom LTDA
TELNAP TELECOM Sp. z o.o.
Hitec Sure cc
Tanzania Education And Research Network
PT SOLUSI TRIMEGAH PERSADA
PJSC Rostelecom
Invitech ICT Services Kft.
Insidesign Tecnologia Ltda EPP
Mazeda Networks Limited
DASTO semtel d.o.o.
STARNET TELECOMUNICACOES LTDA
Dakota Carrier Network
AL-SARD FIBER Co. for Internet Fiber and Optical Cable Services /Ltd.
SONATEL-AS Autonomous System
Utah Broadband LLC
OZONIO TELECOMUNICACOES LTDA
Cable Tica
PT Integra Kreasitama Solusindo
BlueNet Communication JV ltd.
G4 Ltda
Alberta Health Services
CLARO S.A.
LLC Digital Dialogue-Nets
PODA a.s.
DAWIS IT Sp. z o.o.
E-WORLD COMMUNICATION SDN BHD
UFINET PANAMA S.A.
FOP Dolgiy Andriy Fedorovuch
ENI S.p.A.
TELBESKID Sp. z o.o.
Libyan Elite Company for Technical Solutions
MTN Uganda
Nationwide Children's Hospital
green.ch AG
Ferguson Enterprises, Inc.
Comteco Ltda
BT Italia S.p.A.
GIGA TV LTDA - EPP
VAINAVI INDUSTIES LTD, INTERNET SERVICE PROVIDER, INDIA
Hilal Al-Rafidain for Computer and Internet Services Co., Ltd.
World Vision Networks Private Limited
Ejmnet Tecnologia ltda
Cegeka NV
DATACOM CARIBE, INC.
IFX Corporation
GOLDEN LINK
State of Nevada
Triple T Internet Company Limited
Buckeye Cablevision, Inc.
Fast Telecommunications Company W.L.L.
SOBRALNET SERVICOS E TELECOMUNICACOES LTDA - ME
PT XL Axiata Tbk
Pacnet Business Solutions LTD
Gigared S.A.
LinkChina Telecom Global Limited.
FAIRPOINT COMMUNICATIONS, INC.
British Telecommunications PLC
DINAS KOMUNIKASI DAN INFORMATIKA KABUPATEN PACITAN
STACKS INC
AN TELECOM
Best Buy Co., Inc.
PT. DIGITAL NETWORK SETIAWAN
The Prudential Insurance Company of America
Exponential-E Ltd.
ALTICE DOMINICANA S.A.
Getlinks (SMC-Private) Limited
SG.GS
Network Research Belgium
ACN
PT Inti Data Telematika
PT Perkebunan Nusantara IV (PTPN IV)
JasTel Network
Virtual Internet
Afghan Cyber ISP
Gigaclear Limited
Premium Connectivity Limited
Mikrocenter Informática Ltda.
SAP Asia Pte Ltd
Servicios y Telecomunicaciones S.A.
Infonet Thailand
TechAvenue Sdn Bhd
REDECOM
Tata Teleservices (Maharashtra) Ltd
Spark New Zealand Trading Limited
Mercantile Office Systems
McAfee Germany GmbH
CELESTE SAS
Corporación Telemic C.A.
NGCOM
UNHfree.net z.s.
PT ARTHA TELEKOMINDO
StratusIQ
Inexa Tecnologia LTDA.
PT Ring Media Nusantara
Fatbeam, LLC
WIDE Project
Century Telecom Ltda
Hi-Tec Enterprise
Honeywell Europe Services SAS
Beihai
PT. Cemerlang Multimedia
MCNC
Speednet Provedor de Acesso a Internet Ltda
Zanzibar Information Communication Technology Infrastructure Agency (ZICTIA)
Teradata Operations, Inc.
Aureon Network Services
Level 3 Parent, LLC
Amnet Telecomunicaciones S.A.
IBM
Telia Eesti AS
Satnet
Bahrain Telecommunications Company (BATELCO) B.S.C.
PT Solusi Aksesindo Pratama
EPT Grand-Orly Seine Bievre
Ensite Brasil Telecomunicações Ltda - ME
TIANJIN Provincial Net of CT
MALARGÜE ONLINE
Marcatel Com, S.A. de C.V.
PT Mora Telematika Indonesia
Telebec
SANOFI AVENTIS
S3WIRELESS COLOMBIA S.A
Arconic Inc.
Super Sonic Broadband Pvt Ltd
Vianet Communications Pvt. Ltd
Net-Uai Internet Provider LTDA ME
Lucky Tone Communications Ltd
Comeser S.r.l.
China Enterprise ICT Solutions Limited
VeloCloud Networks, Inc.
OOREDOO MALDIVES PRIVATE LIMITED
Iway AG
Cirrus Networks Pty Ltd
Albtelecom Sh.a.
Raynet Telecomunicações Ltda
Luoyang, Henan Province, P.R.China.
St. Lucie County - Automated Services
Telefonica del Sur S.A.
Clean Net Telecom Ltda
CommunicationOne Pvt. Ltd.
NetCom BW GmbH
Wideband Networks Pty Ltd
LLC "Ukrtele-Service"
Iron Mountain Data Center
INTERNEXA PERU S.A
Orange Tunisie
Agri-Valley Services Corporation
Singapore Telecommunications Ltd, Magix Services
Shentel Communications, LLC
Hong Kong Broadband Network Ltd
Ziply Fiber
Roll Global LLC
Macquarie Corporate Telecommunications
CONTENT DELIVERY NETWORK LTD
PT SARANA INTI MAKMUR BERSAMA
NETNOD Internet Exchange i Sverige AB
Chittagong Online Limited.
PT. Menaksopal Link Nusantara
OPEN FIBRE NETWORKS (WHOLESALE) LIMITED
PT.GRAMEDIA
Huawei do Brasil Telecomunicações Ltda.
HUAWEI TECHNOLOGIES(UK)CO.,LTD
Hrvatski Telekom d.d.
Telconet S.A
MTN NIGERIA Communication limited
Ashiq Cable Network (Pvt.) Limited
EATEL
JON.CZ s.r.o.
Comsol Networks (PTY) Ltd
Noakhali Broadband Network
EPM Telecomunicaciones S.A. E.S.P.
Societe Nigerienne des Telecommunications (SONITEL)
Staples, Inc
P4 TELECOM LTDA
PT DES Teknologi Informasi
Cobalt Broadband Services, S.A. de C.V.
BPP Services Limited
COOPERATIVAS DE CALAMUCHITA - CONSORCIO DE COOPERACIÓN
M H Online
OJSC Comcor
PT Bantani Media Utama
NEW ACCESS S.A.
Accenture LLP
Comcast Cable Communications, LLC
PJSC MegaFon
HSP TELECOMUNICAÇÕES EIRELI - ME
Unifique Telecomunicações SA
Sdh Network Pvt Ltd
Superhub Ltd.
ALCORT INGENIERIA Y ASESORIA S.L.
Wayport, LLC
Telecel S.A.
PT Rekajasa Akses
Miguel Amado Escobar
MARANDU COMUNICACIONES SOCIEDAD DEL ESTADO
Linde AG
Ferrari-Networks SARL
Bell Canada
Sony Electronics (S) Pte. Ltd
Bulgarian Telecommunications Company Plc.
Tatanet Services Limited
Crossnet LLC
Virgin Mobile Polska Sp. z o. o.
TPG Internet Pty Ltd
TOP NET SERVIÇOS LTDA
Tesla, Inc.
PT. Inet Global Indo
Sky Cable Corporation
Vlasimnet s.r.o.
Telecommunication networks Ltd
GOSTARESH-E-ERTEBATAT-E MABNA COMPANY (Private Joint Stock)
Sunesys, LLC
Heilongjiang Provincial Net of CT
1 Touch BD Online Ltd.
Safe Hosts Internet LLP
Uplink Telecom
NetNet
CTC. CORP S.A. (TELEFONICA EMPRESAS)
Orange Belgium SA
Taif Al Omnnea for the Distribution of Communication equipments Ltd
TECNET ARGENTINA S.A.
Atlantic Broadband Finance, LLC
ALTICOR INC
DIGISOFT
Skycorp S.A.
Cooperativa Electrica de Colon (BA) LTDA
First Advantage Corporation
MAC Telecom S.A.
W3 MEGA
GRUPO ZGH SPA
PT Gasatek Bintang Nusantara
Stowe Communications LLC
CERNER CORPORATION PTY LIMITED
GGNET TELECOMUNICAÇÕES LTDA
SingTel Optus Pty Ltd
ARICHWAL IT SERVICES PRIVATE LIMITED
Oceanet Technology SAS
Afrihost (Pty) Ltd
Netze Technology Private Limited
One Ring Networks, Inc.
VC Telecoms Sdn. Bhd.
Eircom Limited
Dinas Komunikasi dan Informatika Pemerintah Kabupaten Cilacap
Taiwan Fixed Network, Telco and Network Service Provider.
Banque Nationale du Canada
Saveho SARL
Rede Connect Telecom
Race Online Limited
Netia SA
SIRIO TELECOMUNICACIONES S.R.L
Dhaka Information Technology
Ertebatat Sabet Parsian Co. PJS
Hoinaski & Sklasky Ltda
Xplornet Communications Inc.
ENGEPLUS INFORMATICA LTDA
Softlink LTD
Beam Telecom Pvt Ltd
Alibaba (US) Technology Co., Ltd.
HOR.NET Polska Sp.z o.o.
AIRSPEED COMMUNICATIONS UNLIMITED COMPANY
Vcitynet Opc Pvt Ltd
Airtel Networks Limited
TDC A/S
City of Tacoma
COMNET BILGI ILETISIM TEKNOLOJILERI TICARET A.S.
Digicel (Panama), S.A
PT Jala Lintas Media
Slovak Telecom, a. s.
Pacifico Cable SPA.
Infinivan Incorporated
Rackh Lintas Asia, pt
CHILENA CONSOLIDADA SEGUROS S.A.
Wifmax S.A de C.V.
Linejet servios de telecomunicaes ltd
e-Net, s.r.o.
ECOM CHACO S.A.
Kurlec Wireless (PTY) Ltd
Jean Franck Ximenes
Interworks Wireless Solutions
BR Automacao e Consultoria Ltda
Speedcast Communications, Inc
Hondutel
GNEX LTDA
Dhaka Fiber Net Ltd
Beanfield Technologies Inc.
Etisalat Afghan
ARTERIA Networks Corporation
Columbus Networks El Salvador SA de CV
Telnet Ltd. Networking Center
Scotia McLeod Inc.
Tarin General Trading and Setting Up Internet Device LTD
PLANETA NET TELECOM
PJSC "Vimpelcom"
Sylhet-Net Broadband
Virtual Radiologic Corporation
PT Giga Patra Multimedia
America-NET Ltda.
TV ISLA LTDA
XMission, L.C.
Mainone Cable Company
DTnet Detva s.r.o.
Vocus Communications
BroadAspect
Cablevisión, S.A. de C.V.
PT Orbit Eka Semesta
EZIT Solutions Pte Ltd
ORBI TELECOM
BRASIL DIGITAL SERVIÇOS DE INFORMATICA E COMERCIO
Alcatel-Lucent
Intermax BV
Sony Pictures Entertainment Inc
WIN S.A.
UNIVERSIDAD UNIACC
Kordia Limited
O T Tecnologia Em Informática Ltda
ADVANCED WIRELESS NETWORK COMPANY LIMITED
Oriental Cable Network Co., Ltd.
Birlasoft IndiaLtd.
MegaPath Networks Inc.
Furrera For Telecommunication & Internet Services Co. Private Shareholding Company
Hanoi Telecom Joint Stock Company - HCMC Branch
INEA S.A.
EMTEL LIMITED
Yatanarpon Teleport Company Limited
Fiberlink Pvt.Ltd
LEVEL3 CARRIER LIMITED
Allstream Corp.
MUNDIAL TELECOMUNICACAO LTDA - ME
TELEKOM SRBIJA a.d.
SERVICABLE S.A. DE C.V.
Nokia of America Corporation
Paducah Power System
NEROCLOUD LTD
NetMagic Solutions Pvt Ltd
Corbina Telecom Llc.
BISSOLOTTI & BISSOLOTTI LTDA
Terrecablate Reti e Servizi S.R.L.
GNC-Alfa CJSC
COTAS LTDA.
A2j Data Services Pvt. Ltd.
UPNETIX TELECOM
PT. Infotama Lintas Global
Brennan Voice and Data Pty Ltd
COSTA & SILVA LTDA - ME
TELECOM ITALIA SPARKLE S.p.A.
Qualcomm, Inc.
Hawaiian Telcom Services Company, Inc.
Link3 Technologies Limited
Gigaline Teleservices Opc Private Limited
Sprint Personal Communications Systems
Techno Asia Infotech Limited
Ambiente Virtual Sistemas e Conectividade Ltda
Netnam Company
Petroluem Development Oman LLC
Cablenet S.A
West Development, INC.
PT iForte Global Internet
Horizon Telecom B.V.
SUMICITY TELECOMUNICACOES S.A.
China Internet Network Infomation Center
National Institute of Informatics
Syscon Infoway Pvt. Ltd.
VODAFONE-PANAFON HELLENIC TELECOMMUNICATIONS COMPANY SA
DISTRIBUTEL COMMUNICATIONS LTD.
Red Nacional Académica de Tecnología Avanzada - RENATA
Linkwave Technologies Pvt. Ltd
PT Sandya Sistem Indonesia
Spanish Fork City
REDE DE TELECOMUNICAÇÕES CARAJAS LTDA
TM Net Sdn Bhd
Inq. Digital Nigeria
Nextgen Networks
BANK DEGROOF PETERCAM SA
RELX inc.
ha-vel internet s.r.o.
Finstar - Sociedade de Investimento e Participacoes S.A
Adventist Health Systems SSCI
NetCologne Gesellschaft fur Telekommunikation mbH
Albanian Telecommunications Union SH. P.K.
Xnet Internet Services (Pty) Ltd
DEBACOM Sp. z o.o.
Mauritius Telecom Ltd
X INTEGRATION PTY LTD
Shanghai Data Solution Co., Ltd.
DataBank Holdings, Ltd.
RCS & RDS SA
Tele2 Sverige AB
WIKI TELECOMUNICACOES EIRELI
The Noor Group
King Netsol Private Limited
Zimbabwe Online (Private) Ltd.
Sudoeste Telecom Ltda - ME
COPEL Telecomunicações S.A.
XSTRA Group Pty Ltd
Babakaya Networking Services Company
PT Yetoya Solusi Indonesia
Telenor Satellite AS
Ebone Network (PVT.) Limited
DJIBOUTI TELECOM S.A.
Bureau of Land Management Joint Pipeline Office
IOT Guangdong network, Chinatelecom, P.R.China.
Gazon Communications India Limited
Kinetic Myanmar Technology Co. ltd
Ecuadortelecom S.A.
Artfiles New Media GmbH
Kementerian Agama (KEMENAG)
Bredbandig IT Communication i Goteborg AB
GlaxoSmithKline
Westinghouse Electric Company LLC
WWZ Telekom AG
PT BINA INFORMATIKA SOLUSI
ecotel communication ag
IV INFORMATICA LTDA -ME
SKAT TV Ltd.
Tennessee Valley Authority
EWE TEL GmbH
INFOCOM LIMITED
Global Transit Communications
Web Africa Networks (Pty) Ltd
Unitary enterprise A1
PT. Fiber Networks Indonesia
Ooredoo Q.S.C.
SoftLayer Technologies Inc.
Model Telecom Ltd
Government Communications Network
OPTICAL TECHNOLOGIES S.A.C.
BDCOM Online Limited
Ghana Telecommunications Company Limited
PT Citra Jelajah Informatika
Aetna, Inc.
Hamilton County Communications, Inc
PT. Trans Indonesia Superkoridor
Druzstvo EUROSIGNAL
AT&T Data Communications Services
Gestora de Infraestructuras de Telecomunicaciones de Guinea Ecuatorial
DIGI Tavkozlesi es Szolgaltato Kft.
Radiant Communications Canada Ltd.
Fidelity Communication International Inc.
TELE ALHAMA S.L
Ucom CJSC
EarthLink Ltd. Communications&Internet Services
Planet Cable, Inc.
INTERSAT S.A.
MetroNet Bangladesh Limited
Dialog Axiata Plc
Alliance Broadband Services Pvt. Ltd.
Jakub Skorek trading as MCG
NORTH WAVE TELECOM EIRELI
Damian Giecko "COVERNET"
Latvijas Mobilais Telefons SIA
Eyes Nwhere Sistemas Inteligentes de Imagem Ltda
WKVE Asses. em Serviços de Inform. e Telecom. Ltda
WEBFOCO TELECOMUNICACOES LTDA
Capitalonline Data Service Co.,LTD
Lalu Network Solutions Private Limited
Teleglobal Communications Pvt Ltd
G-LAB Telecom Informatica LTDA - ME
Massillon Cable Communications
Armstrong
Neology (Pty) Ltd
Lenta Ltd
Municipal Network Services
ANJANI BROADBAND SOLUTIONS PVT.LTD.
SATURNO COMUNICAÇÕES LTDA
Gamma Network Solution Limited
United Electric Cooperative
Udaan Internet Services Pvt Ltd
Fibrenoire Inc.
Media Antar Nusa PT.
Beijing HuaxiaYakue Network Technology Co., Ltd.
DELTA Fiber Nederland B.V.
PSI/Maximus
Amazon.com, Inc.
AT&T JAPAN KK
New Century InfoComm Tech Co., Ltd.
RIPE Network Coordination Centre
I T Tecnologia e Informação Ltda
Metacom (Pty) Limited
Dell, Inc.
Contingency Networks Ltd
Wave Broadband
ENTANET International Limited
SUDATCHAD SA/CA
Ownit Broadband AB
REMINI TELECOM s.a.r.l
Pegaso PCS, S.A. de C.V.
Jacobs Engineering Group
ORANGE BUSINESS SERVICES U.S. Inc.
Intact Financial Corporation
Shongzog BD Net
Kerala Vision Broad Band Private Limited
Over the Wire Pty Ltd
ZUM TELECOM LTDA- ME
Communicate Technology PLC
TekSavvy Solutions, Inc.
Optix Pakistan (Pvt.) Limited
Angkor Data Communication
Linkdotnet Telecom Limited
PT. INDOSAT Tbk
Innovative Solutions Ltd
Suddenlink Communications
JSC "Zap-SibTransTelekom"
TELEFONICA DE ESPANA
LIBANTELECOM
EE Limited
Telstra International Limited
VOIPGLOBE SERVICOS DE COM MULTIMIDIA VIA INTERNET
GRUPOHOST COMUNICACAO MULTIMIDIA LTDA
PT Satu Sistem Integrasi
Pemerintah Kota Padang
HASHIKMA NGN International Communications 015LTD
Asia Pacific Network Information Centre
Brasil Telecom S/A - Filial Distrito Federal
AT&T Corp.
Delta Technology
CERNET2 IX at Shanghai Jiaotong University
Bangla Phone Ltd
PRZEDSIEBIORSTWO HANDLOWOPRODUKCYJNOUSLUGOWE "ARONET" ANDRZEJ OLSZEWSKI
Telekomunikasi Indonesia (PT)
BKK Digitek AS
Gigabit ApS
Free Mobile SAS
T-Mobile Czech Republic a.s.
TASS TELECOM - SERVICOS DE TELECOM LTDA
AIRPOINT TELECOMUNICACIONES LIMITADA
Rawshanara Internet Communication
ScanPlus GmbH
Meghbela Cable & Broadband Services (P) Ltd
PT Remala Abadi
Charter Communications
Piranha Systems
Vodacom
ANDORRA TELECOM SAU
ALWAYS ON SAS
7 Star Telecom (Private) Limited
Cellcom Fixed Line Communication L.P.
JAB Wireless, INC.
TimerNet Telecom
Targo Communications Inc.
SAREnet, S.A.
ECONOCABLE MEDIA SAC
BBN Technologies Corp.
JSC "Silknet"
Valin Company for General Trading and Communication LTD
S.I. TELECOM. SERVICOS DE TELEFONIA LTDA EPP
Society of Mali's Telecommunications (SOTELMA)
VIVO CONNECTION spol. s r.o.
Global Ra Net Services Pvt. Ltd.
PT. Fiqran Solusindo Mediatama
NOS COMUNICACOES, S.A.
NEXTGEN COMMUNICATIONS SRL
CORPORATIVA TELECOMUNICACOES EIRELI ME
Ulunet Internet ve Iletisim Hizmetleri San. ve Tic. Ltd. Sti.
PJSC Moscow city telephone network
Alascom, Inc.
UNIVERSIDAD LATINOAMERICANA, S.C.
STATURE (PTY) LTD
2COM Co Ltd.
CONNECT MAX TELECOM LTDA
NTT Communications Corporation
FIBER WEB SERVICES LTDA
Internet Service Provider
COMPLETEL SAS
Linkdotnet-Jordan
PT. Pemuda Berkarya Manunggal
Planet Wi Fi Private Limited
ALGAR TELECOM S/A
MINAS INFO LTDA-ME
NEDETEL S.A.
Integrated Telecom Co. Ltd
Artennet Comunicações Ltda - Me
Net Info Informatica Ltda
Wal-Mart Stores Inc.
NBS SERVICOS DE COMUNICACOES LTDA
Execulink Telecom Inc.
TELCONET S A
The Southern Company
Beijing Kuancom Network Technology Co.,Ltd.
7 STAR DOT COM Pvt. Ltd
Eurotranstelecom Ltd
MVM PINTO COMERCIO E SERVICOS ME
ViewQwest Sdn. Bhd.
NEW MASTER PROVEDOR DE ACESSO A INTERNET
ISPCOM S.A.
Center Prestadora Serviços S/C Ltda
Coastal Broadband And Online Services Pvt. Ltd.
Daisy Communications Ltd
Aria Shatel Company Ltd
Masco Group LLC
ipNX Nigeria Limited
GNET PROVEDOR
Boom Info Tech (SMC-Pvt) Ltd
International Monetary Fund
Origin Energy Retail Limited
First Light Fiber
INTERNEXA Chile S.A.
Vox Telecom Ltd
Xs4all Internet BV
Zenlayer Inc
DHL BROADBAND NET P LIMITED
ENTEL CHILE S.A.
AGT NETWORKS
MORENO PABLO DANIEL (SOLNET ISP)
ALLYSON DINIZ MELO - ME
PT INDONESIA TRANS NETWORK
PLUGAR TELECOM
Tele Columbus AG
Atlantic Telephone Membership Corp.
GENERAL COMMUNICATION, INC.
Gamma Telecom Holdings Ltd
CH Sistemas Videla S.R.L.
IPNetZone
Consolidated Communications, Inc.
iDAQ Ltd.
Beijing Primezone Technologies Inc.
Datacamp Limited
EVOLUTIO CLOUD ENABLER S.A. UNIPERSONAL
INNET SOLUTIONS SDN BHD
TeleTech Holdings, Inc
PT Tekling Media Interkoneksi
PT Centrin Utama
THE ENERGY AUTHORITY
VTX Services SA
TELEINFOR COMERCIO E SERVIÇO LTDA-ME
TeraGo Networks Inc.
Gontar Vitaliy Gennadievich
Ansluten Hosting i Sverige AB
General Services Commission
Schlumberger Limited
Skane Lans Landsting
HD Supply, Inc.
DIGI SPAIN TELECOM S.L.U.
acens Technologies, S.L.
VTX Communications LLC
Endeavor Communications
Carnival Corporation
Jack Henry & Associates, Inc.
PCCW IMS Limited
Bahnhof AB
Liberia Telecommunications Corporation (libtelco)
Managed Network Solutions, Inc.
MINAS TELECOM
Gigafiber Internet Private Limited
KT RWANDA NETWORK Ltd
Octatech IT
Rech e Bernardi LTDA ME
Unitedhealthcare
Netplus Broadband Services Private Limited
DIRECT ON PC LTD
Telecommunicationcompany Suriname - TeleSur
Eastern Telecommunications Philippines, Inc.
PT SURYA TEKNIKA PRATAMA
PT Smart Teknologi Utama
BD Networks
Fastenal Company
Vobiss Solutions Limited
A&E Television - Stamford
1&1 Versatel Deutschland GmbH
K2 Telecom e Multimidia LTDA ME
Akamai Technologies, Inc.
South Central Communications, Inc.
KKON Technologies Ltd
COLOMBIA TELECOMUNICACIONES S.A. ESP
SOGETEL INC
Lalat Internet Service Pvt Ltd
SWITCH
Network Access Provider and Internet Service Provider
Vianet
Perimeter 81 LLC
Lifebridge Health, Inc.
Asia Pacific Broadband Fixed Lines Co., Ltd.
Skynet
State of Tennessee
Telitec Connections S.L.
Delta Networks
PT SELARAS CITRA TERABIT
IWserver Internet Banda Larga Ltda.
Power Grid Corporation of India Limited
Sky Internet
MTS PJSC
Ernst & Young LLP
BGP Consultancy Pte Ltd
CONECT TELECOM
Level 7 Wireless (Pty) Ltd
MTC KSA
GTD COLOMBIA S.A.S
WellNetworks (Private) Limited
INTERNET DA BAHIA LTDA
HORIZON TELECOM INTERNATIONAL COMPANY LIMITED
Onexti SARL
TECOMUNICA NICARAGUA
Pogliotti & Pogliotti Construcciones S.A.
VIETTEL PERÚ S.A.C.
TECNET TELECOM EIRELI ME
Telia Lietuva, AB
Energia Communications,Inc.
AAPT Limited
Fluor Enterprises, Inc.
G R Serviços de Comunicação Multimídia Ltda. ME
NeuStar, Inc.
Mega Max Distributors
Infonet online solutions private limited
Nayatel (Pvt) Ltd
Axiom Networks Ltd
Empresa de Telecomunicaciones de Cuba, S.A.
Cats-Net Limited
IPKO Telecommunications LLC
Blue Sky Telecom LTD
Mdc Datacenter S.L.
Saskatchewan Telecommunications
GRANDE REDE TELECOM EIRELLE
Enmax Envision Inc.
TelNET Communication Ltd
Bank of China Limited
Procter & Gamble Service GmbH
Valley Telecom Internet
Oceaneering International, Inc.
Orbitel Communications, LLC
BRISK SYSTEMS
Deutsche Telekom AG
XFone 018 Ltd
Integration Partners Corporation
Solucao Network Provedor Ltda
Laxo Global Akses, PT
Canalbox Benin
LENOVO (AUSTRALIA & NEW ZEALAND) PTY LIMITED
GK Network
China Unicom
PT INDONESIA COMNETS PLUS
AS STV
T-mobile Netherlands B.V.
KRUCZNET - naprawa sprzetu RTV i elektronicznego Jozef Kruczek
New Telecommunication Company Ltd.
Globalnet.hn
Stargate Communications Ltd.
ITS TELECOMUNICACOES LTDA
MYREPUBLIC PTY LTD
C Spire Fiber
Digital Technology Co.Ltd.
LLC Optima-East
COLUMBUS NETWORKS COLOMBIA
Uzbektelekom Joint Stock Company
SWIFT ONLINE BORDER AS
Hutchison 3G UK Limited
Cloud Teknologi Nusantara .CV
CNET Provedor de Internet Ltda ME
Bharti Airtel Limited
CHINA UNICOM Industrial Internet Backbone
Shenzhen Ping An Communication Technology Co.,Ltd
INFORBARRA TELECOM
CORPORACION NACIONAL DE TELECOMUNICACIONES - CNT EP
PT. Cyberindo Aditama
INTERNET TELECOMUNICATION COMPANY DE GUATEMALA S.A. , SUCURSAL EL SALVADOR
Origin Broadband Limited
Metro MPLS
Gigantic Infotel Pvt Ltd
INSTITUT AGAMA ISLAM NEGERI (IAIN) PONOROGO
Pfizer Manufacturing Deutschland GmbH
Dinas Komunikasi dan Informatika Kabupaten Karanganyar
EQUIPOS Y SISTEMAS S.A.
Accenture UK Limited
SCTV INFRASTRUCTURE BUSINESS INVESMENT COMPANY LIMITED
CD-Telematika a.s.
Major League Baseball Advanced Media, LP
Orange Côte d'Ivoire
Texas A&M University
Nova Rede de Telecomunicações Ltda
LOGNET
National Agricultural Cooperative federation
Viettel Corporation
Bezeq International-Ltd
Colombia Móvil
Spider Net Ltd
UNION BROADBAND NETWORK
ALGAR TECNOLOGIA E CONSULTORIA SA
GLORIOSA INFOTEL IT SERVICES INDIA PRIVATE LIMITED
SPEED NET INFORMATICA LTDA-ME
KBZ Gateway Company Ltd
ICT BULUT BILISIM A.S.
Hurricane Electric LLC
Pemerintah Kabupaten Purbalingga
Télécommunications de Haití (Teleco)
Hospices civils de Lyon
VDT COMMUNICATIONS LIMITED
Telefonica Empresas
Millenicom GmbH
MARKAS BESAR KEPOLISIAN REPUBLIK INDONESIA
PT Bali Soket Informindo
R A DIAS SANTOS PROVEDOR DE INTERNET
Vodafone Qatar Q.S.C.
PT Anugerah Cimanuk Raya
Roke Investments International Ltd
T-Mobile Austria GmbH
Dehradun Enet Solutions Private Ltd
ICOMSA S.A. de C.V.
Internet bolaget Sverige AB
Roularta Media Group
Metrotel SA ESP
DAYTON SUPERIOR CORPORATION
BroadStar Net India Pvt.Ltd.
Digital Satellite Connect Pvt Ltd
PT Tidar Lintas Nusa
CMP WILL TELECOMUNICACIONES SPA
Dhiraagu Pvt.Ltd.
Mary Kay Inc.
ECONOCOM FRANCE S.A.S.
Oman Telecommunications Company (S.A.O.G)
Tucuman BBS S.R.L.
VETORIALNET INF. E SERVIÇOS DE INTERNET LTDA
TIKTOK PTE. LTD.
ultraWIFI Telecom Ltda
RSO APOLO HIDALGO S.R.L.
FranTech Solutions
Wifirst S.A.S.
Apollo Online Services Pvt ltd
AOFEI DATA INTERNATIONAL COMPANY LIMITED
Seacom Western Cape (Pty) Ltd
PT Multidata Rancana Prima
C. HOKI DA COSTA E CIA LTDA - ME
Walmart Canada Corporation
Sunwire Inc.
Symphox Information Co., LTd.
TELUS Communications Inc.
Ricoh Australia PTY LTD
Datautama Dinamika, PT
WorldNet Telecom Comercio e Serviços de Telecomuni
Brutele SC
TELEFÓNICA CHILE S.A.
RICOH Company, Ltd.
Gerrys Information Technology (PVT) Ltd
LT2 TELECOMUNICACOES LTDA - EPP
Cerner Limited
Performive LLC
TelKos L.L.C
DigitalOcean, LLC
Vodafone Australia Pty Ltd
RigNet Inc
M-SOFT, spol. s r.o.
STACKBIT INTERNET SERVICES PRIVATE LIMITED
One97 Communications Ltd
*
Wireline Solution India Pvt Ltd.
Blue Lake Communications Oy
5KOM OOD
Axtel, S.A.B. de C.V.
Hydra Communications Ltd
HGC Global Communications Limited
EDATEL S.A. E.S.P
Netsurion LLC
Regione Basilicata
International Business Machines of Belgium Ltd
Linknet-Fastnet ASN
Telenet BVBA
Ava Telecomunicações LTDA
Manquehuenet
Link Egypt (Link.NET)
The Pioneer Telephone Association, Inc.
Data Moving Company
Lightower Fiber Networks I, LLC
Redtone Telecommunications Pakistan (Private) Limited
PT. MNC Kabel Mediacom
Amobia Communications
Molina Healthcare Inc.
Edge Broadband
Telefonica Germany GmbH & Co.OHG
Alpha Tel S.A.
Public Telecommunication Corporation
Imagine Communications Group Limited
Universitas Negeri Semarang
PT.Global Media Data Prima
BRISANET SERVICOS DE TELECOMUNICACOES LTDA
GlobalConnect A/S
ETH ENTERPRISE TECNOLOGIA LTDA
CMC Telecom Infrastructure Company
STANDARD TELECOM CONGO SARL- STC SA
Digital Communication Company for Telecommunications and Information Technology LTD
Millennium Computers & Networking
PT. LISAR INTERNATIONAL NETWORKING
R2 TECNOLOGIA E TELECOMUNICACOES LTDA - ME
Flexential Colorado Corp.
LandTech Sp. z.o.o.
Saicom Voice Services
GUALAN JAPON LUIS JOAQUIN (SARAGUROSNET)
NSS S.A.
WiCAM Corporation Ltd.
IP TELECOM E SISTEMAS LTDA
GulfNet KSA
SAINT ICT CONSULTANTS (PTY) LTD
PT. ADEAKSA INDO JAYATAMA
Tuhin Enterprise
Globe Telecom (GMCR,INC)
Horizon Scope Mobile Telecom WLL
PT. Araz Inti Line
Nour Communication Co.Ltd - Nournet
PT. Rasi Bintang Perkasa
Various Registries (Maintained by ARIN)
DREAMLINE CO.
CABLE ONE, INC.
VOU COMUNICAÇÕES LTDA
Empresa Provincial de Energia de Cordoba
ANIXTER INC.
GTT
Daulatpur Online
Mexico Red de Telecomunicaciones, S. de R.L. de C.V.
ComClark Network & Technology Corp
Vortex Netsol Private Limited
Telmex Chile Internet S.A.
Global Technology Co., Ltd.
Jamii Telecommunications Limited
S.I Group
POST Luxembourg
Destiny N.V
NERVICOM, C.A.
Metrofibre Networx
Gatik Business Solutions
Automobile Protection Corporation
IBOSS Inc.
REDE TELENEW EIRELI - ME
Airtek Solutions C.A.
WEST INTERNET BANDA LARGA
American Registry for Internet Numbers
Internet Union Spolka Akcyjna
SHARP TELECOM (PRIVATE) LIMITED
Aspire Technology Solutions Ltd
ITC NG ltd
Jumpnet Soluciones de Internet S.R.L.
Infonas WLL
MTN SA
Sanofi Aventis group SA
Symphony Communication Public Company Limited
RCN
Google LLC
Linknet ASN
Nepal Telecommunications Corporation
Dimension Data
Bangladesh Telegraph & Telephone Board
ITELKOM
Plusnet GmbH
P4 Sp. z o.o.
SFR SA
HANWHA Corp. Information Service div.
PT. SHEN SAMUDRA INTERKONEKSI
Cablemas Telecomunicaciones SA de CV
Xerox Corporation
KPN B.V.
Sony Interactive Entertainment Europe Limited
Data Communication Business Group,
MNR Broadband Services Pvt. Ltd.
RADIUS TELECOMS, INC.
MITSUI & CO., LTD.
StarNetworks
BAE Systems Applied Intelligence US Corp.
CARLOS PAZ TELEVISION SA
Vodafone Group PLC
Conrado Cagnoli
BSE Software GmbH
Pfizer Inc.
Wal-Mart Stores, Inc.
T-Systems South Africa (Proprietary) Limited
WETUBE NETWORK
IKEA IT AB
ADISTA SAS
Virgin Media Limited
Izwi Bridge Communications (Pty) Ltd
Cyprus Telecommunications Authority
Televideo Novelda S.A. (Unipersonal)
Lintas Data Prima, PT
WestTel Ltd.
PT Trisula Media Data
TEX NET SERVIÇOS DE COMUNICAÇÃO EM INFORMATICA LTD
EastLink
Candor infosolution Pvt Ltd
IDC TELECOM LTDA
Watson Wyatt H.K. Ltd.
ATC HOLDING FIBRA MEXICO, S. DE R.L. DE C.V.
Techtel LMDS Comunicaciones Interactivas S.A.
DELTA ONLINE spol. s r.o.
M R REDES DE TELECOMUNICAÇOES LTDA
Excellmedia
Apogee Telecom Inc.
MIDIX TECNOLOGIA EIRELI - ME
Georgianairlink LLC
Garra Telecom Ltda
Tose'h Fanavari Ertebabat Pasargad Arian Co. PJS
DCTV Cable Network & Broadband Services Inc.
s IT Solutions AT Spardat GmbH
INDO Internet, PT
Comtel Communications
TELMARC CORPORATION
Stockholms Stadsnat AB
Melsa-i-net AS
Estrelas Tecnoligia da Informação Ltda.
STORMmedia sp. z o.o.
Cynox-IT Limited
R DE MELO NEVES CONEX - ME
Everywhere Wireless, LLC
Unwired Communications Limited
The Corporation for Financing & Promoting Technology
AS Number for Interdomain Routing
DataDiensten Fryslan B.V.
IKON BROADBAND PRIVATE LIMITED
PT JEMBATAN CITRA NUSANTARA
Swedbank AB
China Mobile
Silva & Silveira Provedor de Internet Ltda
ZSCALER, INC.
Karib Cable
Kyivstar PJSC
Sony Media Software and Services Inc.
Maxcom Telecomunicaciones, S.A.B. de C.V.
Sanofi-aventis Singapore Pte Ltd
Sri Lanka Telecom Ltd
Shadhinota Net
Telecom Italia S.p.A.
PT. Power Telecom Indonesia
AFINET SOLUCOES EM TECNOLOGIA DA INFORMACAO LTDA
Enbridge Pipelines Inc.
SUPERLOOP (AUSTRALIA) PTY LTD
Telmex Servicios Empresariales S.A.
Unified National Networks
Orange Polska Spolka Akcyjna
Tai-Fu Cloud Co., Ltd.
3S INF
Supernet, PDS Limited
Sky UK Limited
iiNet Limited
Charter Communications Inc
FARIAS NET SERVICO LTDA
Universitas Mataram
Nova Technology Development (Hong Kong) Limited
Rahanet Internet Service Provider
M&A Technology, Inc
OBIT Ltd.
MLS Wireless S/A
Hi3G Access AB
PT Data Buana Nusantara
University of Texas Medical Branch
Gold Data C.A.
Safaricom Limited
SIM INTERNET PROVEDORES DE INTERNET EIRELI.
Metronet
Jisc Services Limited
Telemar Norte Leste S.A.
Danone SA
AGB Communication Co.Ltd
Partner Communications Ltd.
Huashu media&Network Limited
TELEALFACOM CIA. LTDA.
PHOENIX CHILDREN'S HOSPITAL
WorldLink Communications
Guyana Telephone & Telegraph Co.
AXS Bolivia S. A.
Telefonica de Argentina
NETRUN TECHNOLOGIES PVT LTD
Transhybrid Internet Xchange
Exord Online Ltd
Signet B.V.
iboss,inc
Airtel Ghana Limited
Hulum Almustakbal Company for Communication Engineering and Services Ltd
Vision Technologies Ltd.
HARDONLINE LTDA
ITV-3
CONECEL
TOTAL PLAY TELECOMUNICACIONES SA DE CV
Computer Complex Network
CHINATELECOM Jiangsu Suqian IDC network
Fiber@Home Global Limited
SB NETWORK
ALLTEC INTERNET
PT Comtronics Systems
PT Orion Cyber Internet
Wisper s.r.o.
Tah Moe Hnye'Chan Thar Tun We Thar Company Limited
General Motors LLC
Wind Telecomunicação do Brasil Ltda - ME
Spectra Energy Corporation
Ncore Creative Technologies Pvt.Ltd.
Adecco IT Services SAS
Philippine Long Distance Telephone Co.
ShenZhen Topway Video Communication Co. Ltd
Primetel PLC
Mega Cable, S.A. de C.V.
PT Arkananta Global Media
A1 Bulgaria EAD
Wyris Network Pvt Ltd
FLOW
Fast Cyber Network
SITI NETWORKS LIMITED
LEMOS E MORAIS LTDA.
Fibre Stream PTY Ltd
Net Turbo Telecom
TRIPLE PLAY BROADBAND PRIVATE LIMITED
Vetenskapsradet / SUNET
eStream Networks
City of Burbank
Lowe's Companies, Inc.
BANCO VOTORANTIM S/A
MILLICOM CABLE COSTA RICA S.A.
Netonline Bilisim Sirketi LTD
Digicel Jamaica
No.288,Fu-chun Road
PT. SOLO JALA BUANA
RVNet - R V PORTELA AGUIAR & CIA LTDA
Start Communications
IPVG
Activline Telecom Pvt. Ltd.
GreenNetworks LLC
Logix
Metropolitan Telecomm
KDDI SINGAPORE PTE LTD
VODAFONE NET ILETISIM HIZMETLERI ANONIM SIRKETI
Star Telecom
Telkom SA Ltd.
Korea Telecom
Teleservice Bredband Skane AB
Galaxy Net
NODE1 Pty Ltd
ICC Communication
JORDAN TV CABLE & INTERNET SERVICES CO
Cable Onda
Zen Internet Ltd
J L X Telecom
HWA CENT TELECOMMUNICATIONS LIMITED
The Houses Television C.A. (ConexTELECOM)
JSC "Kaztranscom"
Enreach Netherlands B.V.
Khetan Cable Network Pvt. Limited
Pishgaman Toseeh Ertebatat Company (Private Joint Stock)
Bangalore Broadband Network Pvt Ltd
PT JARINGANKU SARANA NUSANTARA
Green Cloud Technologies,LLC
KOMUNIKA LIMA DUABELAS, PT
ABSA (Amalgamated Banks of South Africa)
Sprint
IQ Networks
Sanofi
Montana Internet Corporation
FiberNet Communications L.C.
PT. Broadband Indonesia Pratama
Grande Communications Networks, LLC
CHIRCALNET TELECOM, C.A.
Lanet Network Ltd
Vodafone Idea Ltd. (VIL)
3M Company
LOGPLAY TELECOM
Liquid Telecommunications Ltd
Telemasters
Tomasz Gruca
Allnet Broadband Network Pvt Ltd
Cisco Systems, Inc.
PAREXEL International GmbH
Winmax Telecommunication India Private Limited
ZINIA ISP (PTY) LTD
LANCOM LTD
Wibo SA de CV
IS InternetSolutions Limited
ASDASD srl a socio unico
Connect LLC
OOO "Post ltd"
3Men@Work Integrated Networks, Inc.
NetLink América C.A.
Systems Solutions & development Technologies Limited
Hughes Communications India Private Limited
JT International SA
URSOFT Soluções em Internet
KAYANAT TECHNOLOGY INTERNET SERVICES CO
Internetia Sp.z o.o.
Quang Trung Software City Development Company
Frankfort Plant Board
Pintwire Infomatics Private Limited
Sign In (PVT) LTD
University of California San Francisco
GITN Sdn. Bhd.
DNA Oyj
BELNET
ChoicePoint, Inc.
Linkt SAS
OSNET Wireless
UpCloud Ltd
NETBITS TECNOLOGIA E COMERCIO LTDA
VIVA TECNOLOGIA TELECOM
DATA WING LIMITED
Telone PVT Ltd
SOUTH EAST ASIA TELECOM (Cambodia) Co., LTD
Hyperoptic Ltd
MYREPUBLIC LIMITED
31173 Services AB
Newtel Limited
VADS Sdn Bhd
Availo Networks AB
AgaNet Agata Goleniewska
GOOFIBER TELECOM
Telx
N R DATA SERVICE PVT LTD
Sonic Telecom LLC
Honeywell International, Inc.
Reliance Industries Limited
